---- qbsp / ericw-tools v0.18.1 ----
Input file: floorbyfloor.map
Output file: floorbyfloor.bsp

---- LoadMapFile ----
*** WARNING 06: No info_player_deathmatch entities in level
        14592 faces
         2125 brushes
          110 entities
           19 unique texnames
         1019 texinfo

Opened WAD: ../wads/prototype_1_2.wad
Processing hull 0...
---- Brush_LoadEntity ----
         2089 brushes
         2089 planes
---- CSGFaces ----
        14376 brushfaces
         8009 csgfaces
         5063 mergedfaces
---- SolidBSP ----
         6328 split nodes
         2647 solid leafs
         3530 empty leafs
          152 water leafs
            0 detail leafs
            0 detail illusionary leafs
            0 detail fence leafs
            0 illusionary visblocker leafs
        22474 leaffaces
        20409 nodefaces
---- Portalize ----
         3682 vis leafs
         3682 vis clusters
        11571 vis portals
---- FillOutside ----
          241 outleafs
---- MergeAll ----
         4986 mergefaces
---- SolidBSP ----
         4930 split nodes
         2220 solid leafs
         2582 empty leafs
          129 water leafs
            0 detail leafs
            0 detail illusionary leafs
            0 detail fence leafs
            0 illusionary visblocker leafs
        19182 leaffaces
        17127 nodefaces
---- Portalize ----
         2711 vis leafs
         2711 vis clusters
         8769 vis portals
---- Tjunc ----
        10336 world edges
        46640 edge points
         9096 edges added by tjunctions
            0 faces added by tjunctions
---- MakeFaceEdges ----
---- GrowRegions ----
Processing hull 1...
Processing hull 2...
---- WriteBSPFile ----
Wrote floorbyfloor.bsp
         6919 planes           138380
        19514 vertexes         234168
         5125 nodes            123000
          979 texinfo           39160
        18317 faces            366340
        18468 clipnodes        147744
         2904 leafs             81312
        20381 marksurfaces      40762
        78768 surfedges        315072
        39479 edges            157916
           19 textures         285080
              lightdata             0
              visdata               0
              entdata            9700

3.063 seconds elapsed
Peak memory usage: 114574970 (109.3M)
