---- qbsp / ericw-tools v0.18.1 ----
Input file: floorbyfloor.map
Output file: floorbyfloor.bsp

---- LoadMapFile ----
*** WARNING 06: No info_player_deathmatch entities in level
        14721 faces
         2155 brushes
          194 entities
           36 unique texnames
         1203 texinfo

Opened WAD: ../wads/prototype_1_2.wad
Opened WAD: ../wads/id1.wad
Processing hull 0...
---- Brush_LoadEntity ----
         2109 brushes
         2166 planes
---- CSGFaces ----
        14445 brushfaces
         7859 csgfaces
         5047 mergedfaces
---- SolidBSP ----
         7095 split nodes
         3087 solid leafs
         3826 empty leafs
          183 water leafs
            0 detail leafs
            0 detail illusionary leafs
            0 detail fence leafs
            0 illusionary visblocker leafs
        18433 leaffaces
        16539 nodefaces
---- Portalize ----
         4009 vis leafs
         4009 vis clusters
        13042 vis portals
---- FillOutside ----
          219 outleafs
---- MergeAll ----
         4978 mergefaces
---- SolidBSP ----
         5773 split nodes
         2648 solid leafs
         2964 empty leafs
          162 water leafs
            0 detail leafs
            0 detail illusionary leafs
            0 detail fence leafs
            0 illusionary visblocker leafs
        15225 leaffaces
        13391 nodefaces
---- Portalize ----
         3126 vis leafs
         3126 vis clusters
        10385 vis portals
---- Tjunc ----
        10170 world edges
        38068 edge points
         7802 edges added by tjunctions
            0 faces added by tjunctions
---- MakeFaceEdges ----
---- GrowRegions ----
Processing hull 1...
Processing hull 2...
---- WriteBSPFile ----
Wrote floorbyfloor.bsp
         7257 planes           145140
        14598 vertexes         175176
         6012 nodes            144288
         1112 texinfo           44480
        14029 faces            280580
        21250 clipnodes        170000
         3355 leafs             93940
        15872 marksurfaces      31744
        60250 surfedges        241000
        30246 edges            120984
           42 textures         366332
              lightdata             0
              visdata               0
              entdata           17793

3.406 seconds elapsed
Peak memory usage: 112755348 (107.5M)
