---- qbsp / ericw-tools v0.18.1 ----
Input file: floorbyfloor.map
Output file: floorbyfloor.bsp

---- LoadMapFile ----
*** WARNING 06: No info_player_deathmatch entities in level
        15076 faces
         2218 brushes
          217 entities
           42 unique texnames
         1583 texinfo

Opened WAD: ../wads/prototype_1_2.wad
Opened WAD: ../wads/id1.wad
Processing hull 0...
---- Brush_LoadEntity ----
         2172 brushes
         3657 planes
---- CSGFaces ----
        14800 brushfaces
         8245 csgfaces
         5970 mergedfaces
---- SolidBSP ----
        11416 split nodes
         5268 solid leafs
         5938 empty leafs
          211 water leafs
            0 detail leafs
            0 detail illusionary leafs
            0 detail fence leafs
            0 illusionary visblocker leafs
        23241 leaffaces
        20607 nodefaces
---- Portalize ----
         6149 vis leafs
         6149 vis clusters
        21264 vis portals
---- FillOutside ----
          267 outleafs
---- MergeAll ----
         5900 mergefaces
---- SolidBSP ----
         8733 split nodes
         4122 solid leafs
         4454 empty leafs
          158 water leafs
            0 detail leafs
            0 detail illusionary leafs
            0 detail fence leafs
            0 illusionary visblocker leafs
        18650 leaffaces
        15606 nodefaces
---- Portalize ----
         4612 vis leafs
         4612 vis clusters
        16686 vis portals
---- Tjunc ----
        13170 world edges
        45763 edge points
         8818 edges added by tjunctions
            0 faces added by tjunctions
---- MakeFaceEdges ----
---- GrowRegions ----
Processing hull 1...
Processing hull 2...
---- WriteBSPFile ----
Wrote floorbyfloor.bsp
        12387 planes           247740
        16860 vertexes         202320
         8972 nodes            215328
         1453 texinfo           58120
        16244 faces            324880
        35380 clipnodes        283040
         4841 leafs            135548
        19297 marksurfaces      38594
        69356 surfedges        277424
        34801 edges            139204
           48 textures         388356
              lightdata             0
              visdata               0
              entdata           18385

4.020 seconds elapsed
Peak memory usage: 151452418 (144.4M)
