---- qbsp / ericw-tools v0.18.1 ----
Input file: floorbyfloor.map
Output file: floorbyfloor.bsp

---- LoadMapFile ----
*** WARNING 06: No info_player_deathmatch entities in level
        14472 faces
         2105 brushes
           22 entities
           14 unique texnames
          959 texinfo

Opened WAD: ../wads/prototype_1_2.wad
Processing hull 0...
---- Brush_LoadEntity ----
         2089 brushes
         2084 planes
---- CSGFaces ----
        14376 brushfaces
         7975 csgfaces
         5042 mergedfaces
---- SolidBSP ----
         6237 split nodes
         2615 solid leafs
         3483 empty leafs
          140 water leafs
            0 detail leafs
            0 detail illusionary leafs
            0 detail fence leafs
            0 illusionary visblocker leafs
        23209 leaffaces
        20963 nodefaces
---- Portalize ----
         3623 vis leafs
         3623 vis clusters
        11441 vis portals
---- FillOutside ----
          223 outleafs
---- MergeAll ----
         4951 mergefaces
---- SolidBSP ----
         4927 split nodes
         2227 solid leafs
         2581 empty leafs
          120 water leafs
            0 detail leafs
            0 detail illusionary leafs
            0 detail fence leafs
            0 illusionary visblocker leafs
        19949 leaffaces
        17736 nodefaces
---- Portalize ----
         2701 vis leafs
         2701 vis clusters
         8707 vis portals
---- Tjunc ----
        10371 world edges
        48089 edge points
         8868 edges added by tjunctions
            0 faces added by tjunctions
---- MakeFaceEdges ----
---- GrowRegions ----
Processing hull 1...
Processing hull 2...
---- WriteBSPFile ----
Wrote floorbyfloor.bsp
         6804 planes           136080
        19184 vertexes         230208
         5020 nodes            120480
          912 texinfo           36480
        17970 faces            359400
        18199 clipnodes        145592
         2792 leafs             78176
        20192 marksurfaces      40384
        77134 surfedges        308536
        38636 edges            154544
           14 textures         212780
              lightdata             0
              visdata               0
              entdata            1168

3.030 seconds elapsed
Peak memory usage: 113939824 (108.7M)
